12
Properties=species:S:1:pos:R:3 pbc="F F F"
C       -0.42334000       1.32458000      -0.03737000
C       -0.99324000       0.43930000       0.87469000
C        0.57586000       0.88337000      -0.89614000
H       -0.72614000       2.33688000      -0.12248000
H       -1.79230000       0.75827000       1.53486000
H        1.02002000       1.55761000      -1.59990000
C       -0.57586000      -0.88337000       0.89614000
C        0.99324000      -0.43930000      -0.87469000
C        0.42334000      -1.32458000       0.03737000
H       -1.02002000      -1.55761000       1.59990000
H        1.79230000      -0.75827000      -1.53486000
H        0.72614000      -2.33688000       0.12248000
