12

H      -1.020023822784424     -1.557605028152466      1.599904179573059
C      -0.575856149196625     -0.883374989032745      0.896140158176422
H      -0.726143777370453      2.336884737014771     -0.122484132647514
C      -0.423335969448090      1.324585199356079     -0.037368223071098
H      -1.792295932769775      0.758270442485809      1.534855961799622
C      -0.993239820003510      0.439299762248993      0.874688208103180
H       1.792295932769775     -0.758270084857941     -1.534855723381042
C       0.993239939212799     -0.439300358295441     -0.874688088893890
H       0.726144373416901     -2.336884737014771      0.122483804821968
C       0.423336088657379     -1.324584722518921      0.037367895245552
H       1.020023822784424      1.557605028152466     -1.599903941154480
C       0.575855791568756      0.883375346660614     -0.896140038967133
